8
 energy: -14.882829323112 gnorm: 0.000075553054 xtb: 6.6.1 (8d0f1dd)
C           -0.02284122382480        0.77769208648800       -0.00001139280272
C           -1.08441462610576       -0.07686212537046        0.00001456594021
O           -0.64674794696045       -1.33705297984469       -0.00002395882397
N            0.70231569623897       -1.33866896210140       -0.00001275168490
C            1.08990848487168       -0.09501295999128        0.00001599075037
H           -0.02594634001019        1.84659264794284       -0.00002308018490
H           -2.14512524141417        0.07521763934294        0.00002216477880
H            2.13285219720470        0.14809565353407        0.00001746202711
